LTspice 24.0.12 for Windows
Circuit: * C:\Users\rahul\Downloads\230_project\230_project\3.asc
Start Time: Fri Apr 11 14:28:39 2025
solver = Normal
Maximum thread count: 12
tnom = 27
temp = 27
method = modified trap
Early termination of direct N-R iteration.
Direct Newton iteration failed to find .op point.  (Use ".option noopiter" to skip.)
Starting Gmin stepping
Gmin = 10
vernier = 0.5
vernier = 0.25
vernier = 0.125
Gmin = 5.49741
vernier = 0.0625
vernier = 0.03125
vernier = 0.015625
vernier = 0.0078125
Gmin = 5.51716
vernier = 0.00390625
vernier = 0.00195312
vernier = 0.000976562
vernier = 0.000488281
Gmin = 5.50104
Gmin = 0
Gmin stepping failed

Starting source stepping with srcstepmethod=0
Source Step = 3.0303%
Source Step = 9.84848%
Source Step = 17.4242%
Source Step = 25%
Source Step = 32.5758%
Source Step = 40.1515%
vernier = 0.375
Source Step = 50.7576%
Source Step = 62.1212%
Source Step = 73.4848%
Source Step = 84.8485%
Source Step = 96.2121%
vernier = 0.5625
Source stepping succeeded in finding the operating point.

Total elapsed time: 1.178 seconds.

